3UI7_6_MG_A_771
          06092522083D 1   1.00000     0.00000     0
            
  1  0  0  0  0  0            999 V2000
  -36.7190  -42.5930   -2.5780 Mg  0  2  0  0  0  0  0  0  0  0  0  0
M  CHG  1   1   2
M  END
$$$$
3UI7_6_MG_A_771
          06092522443D 1   1.00000     0.00000     0
            
  1  0  0  0  0  0            999 V2000
  -36.7190  -42.5930   -2.5780 Mg  0  2  0  0  0  0  0  0  0  0  0  0
M  CHG  1   1   2
M  END
$$$$
3UI7_6_MG_A_771
          06102512283D 1   1.00000     0.00000     0
            
  1  0  0  0  0  0            999 V2000
  -36.7190  -42.5930   -2.5780 Mg  0  2  0  0  0  0  0  0  0  0  0  0
M  CHG  1   1   2
M  END
$$$$
