3UI7_6_MG_B_771
          06092522083D 1   1.00000     0.00000     0
            
  1  0  0  0  0  0            999 V2000
  -16.5880   -6.8330   10.1320 Mg  0  2  0  0  0  0  0  0  0  0  0  0
M  CHG  1   1   2
M  END
$$$$
3UI7_6_MG_B_771
          06092522443D 1   1.00000     0.00000     0
            
  1  0  0  0  0  0            999 V2000
  -16.5880   -6.8330   10.1320 Mg  0  2  0  0  0  0  0  0  0  0  0  0
M  CHG  1   1   2
M  END
$$$$
3UI7_6_MG_B_771
          06102512283D 1   1.00000     0.00000     0
            
  1  0  0  0  0  0            999 V2000
  -16.5880   -6.8330   10.1320 Mg  0  2  0  0  0  0  0  0  0  0  0  0
M  CHG  1   1   2
M  END
$$$$
