4LK_A_1003
          06102512283D 1   1.00000     0.00000     0
            
 51 55  0  0  0  0            999 V2000
  -25.8721  -13.0778    5.0493 F   0  0  0  0  0  0  0  0  0  0  0  0
  -21.7670  -13.8004    2.9573 O   0  0  0  0  0  0  0  0  0  0  0  0
  -29.0052  -10.5781    9.6229 O   0  0  0  0  0  0  0  0  0  0  0  0
  -29.8699  -11.0439    7.0024 O   0  0  0  0  0  0  0  0  0  0  0  0
  -19.8608  -12.5924    2.6102 O   0  0  0  0  0  0  0  0  0  0  0  0
  -24.9942   -9.7994   12.1569 N   0  0  0  0  0  0  0  0  0  0  0  0
  -25.7857  -10.7719    8.1795 N   0  0  0  0  0  0  0  0  0  0  0  0
  -26.1502  -10.9810    6.8892 N   0  0  0  0  0  0  0  0  0  0  0  0
  -25.1706   -9.8289   10.8260 N   0  0  0  0  0  0  0  0  0  0  0  0
  -21.5448  -11.5968    3.6936 N   0  0  0  0  0  0  0  0  0  0  0  0
  -30.0285  -11.4786    5.6441 C   0  0  0  0  0  0  0  0  0  0  0  0
  -19.3945  -11.2826    2.9439 C   0  0  0  0  0  0  0  0  0  0  0  0
  -26.0854  -10.4024   12.6341 C   0  0  0  0  0  0  0  0  0  0  0  0
  -20.5174  -10.5944    3.6851 C   0  0  0  0  0  0  0  0  0  0  0  0
  -27.4692  -11.0709    6.5001 C   0  0  0  0  0  0  0  0  0  0  0  0
  -22.5746   -7.7110    8.4082 C   0  0  0  0  0  0  0  0  0  0  0  0
  -23.8189   -7.1910    8.7046 C   0  0  0  0  0  0  0  0  0  0  0  0
  -22.1986   -8.9363    8.9157 C   0  0  0  0  0  0  0  0  0  0  0  0
  -26.9494  -10.8285   11.6013 C   0  0  0  0  0  0  0  0  0  0  0  0
  -24.6904   -7.8877    9.5109 C   0  0  0  0  0  0  0  0  0  0  0  0
  -23.0613   -9.6455    9.7212 C   0  0  0  0  0  0  0  0  0  0  0  0
  -22.8357  -10.3780    5.3439 C   0  0  0  0  0  0  0  0  0  0  0  0
  -23.9732  -10.2281    6.1113 C   0  0  0  0  0  0  0  0  0  0  0  0
  -23.7629  -12.3335    4.3697 C   0  0  0  0  0  0  0  0  0  0  0  0
  -21.1365  -12.7618    3.0860 C   0  0  0  0  0  0  0  0  0  0  0  0
  -24.8887  -12.1756    5.1525 C   0  0  0  0  0  0  0  0  0  0  0  0
  -28.1716  -10.7066    8.7369 C   0  0  0  0  0  0  0  0  0  0  0  0
  -28.5216  -10.9549    7.3223 C   0  0  0  0  0  0  0  0  0  0  0  0
  -26.7149  -10.6299    9.0760 C   0  0  0  0  0  0  0  0  0  0  0  0
  -24.2970   -9.1089   10.0077 C   0  0  0  0  0  0  0  0  0  0  0  0
  -22.7167  -11.4434    4.4727 C   0  0  0  0  0  0  0  0  0  0  0  0
  -25.0223  -11.1235    6.0372 C   0  0  0  0  0  0  0  0  0  0  0  0
  -26.3311  -10.4371   10.4355 C   0  0  0  0  0  0  0  0  0  0  0  0
  -31.0024  -11.5391    5.4250 H   0  0  0  0  0  0  0  0  0  0  0  0
  -29.5890  -10.8225    5.0306 H   0  0  0  0  0  0  0  0  0  0  0  0
  -29.6048  -12.3772    5.5300 H   0  0  0  0  0  0  0  0  0  0  0  0
  -19.1692  -10.7752    2.1122 H   0  0  0  0  0  0  0  0  0  0  0  0
  -18.5842  -11.3439    3.5267 H   0  0  0  0  0  0  0  0  0  0  0  0
  -26.2693  -10.5365   13.6079 H   0  0  0  0  0  0  0  0  0  0  0  0
  -20.2413  -10.3520    4.6152 H   0  0  0  0  0  0  0  0  0  0  0  0
  -20.8187   -9.7723    3.2019 H   0  0  0  0  0  0  0  0  0  0  0  0
  -27.6552  -11.2350    5.5313 H   0  0  0  0  0  0  0  0  0  0  0  0
  -21.9452   -7.1980    7.8245 H   0  0  0  0  0  0  0  0  0  0  0  0
  -24.0885   -6.3032    8.3314 H   0  0  0  0  0  0  0  0  0  0  0  0
  -21.2972   -9.3109    8.6984 H   0  0  0  0  0  0  0  0  0  0  0  0
  -27.8208  -11.3098   11.6963 H   0  0  0  0  0  0  0  0  0  0  0  0
  -25.5913   -7.5138    9.7311 H   0  0  0  0  0  0  0  0  0  0  0  0
  -22.7950  -10.5353   10.0919 H   0  0  0  0  0  0  0  0  0  0  0  0
  -22.0937   -9.7118    5.4190 H   0  0  0  0  0  0  0  0  0  0  0  0
  -24.0395   -9.4510    6.7372 H   0  0  0  0  0  0  0  0  0  0  0  0
  -23.7066  -13.0966    3.7258 H   0  0  0  0  0  0  0  0  0  0  0  0
  1 26  1  0  0  0  0
  2 25  2  0  0  0  0
  3 27  2  0  0  0  0
  4 11  1  0  0  0  0
  4 28  1  0  0  0  0
  5 12  1  0  0  0  0
  5 25  1  0  0  0  0
  6  9  1  0  0  0  0
  6 13  2  0  0  0  0
  7  8  1  0  0  0  0
  7 29  2  0  0  0  0
  8 15  1  0  0  0  0
  8 32  1  0  0  0  0
  9 30  1  0  0  0  0
  9 33  1  0  0  0  0
 10 14  1  0  0  0  0
 10 25  1  0  0  0  0
 10 31  1  0  0  0  0
 12 14  1  0  0  0  0
 13 19  1  0  0  0  0
 15 28  2  0  0  0  0
 16 17  2  0  0  0  0
 16 18  1  0  0  0  0
 17 20  1  0  0  0  0
 18 21  2  0  0  0  0
 19 33  2  0  0  0  0
 20 30  2  0  0  0  0
 21 30  1  0  0  0  0
 22 23  1  0  0  0  0
 22 31  2  0  0  0  0
 23 32  2  0  0  0  0
 24 26  2  0  0  0  0
 24 31  1  0  0  0  0
 26 32  1  0  0  0  0
 27 28  1  0  0  0  0
 27 29  1  0  0  0  0
 29 33  1  0  0  0  0
 11 34  1  0  0  0  0
 11 35  1  0  0  0  0
 11 36  1  0  0  0  0
 12 37  1  0  0  0  0
 12 38  1  0  0  0  0
 13 39  1  0  0  0  0
 14 40  1  0  0  0  0
 14 41  1  0  0  0  0
 15 42  1  0  0  0  0
 16 43  1  0  0  0  0
 17 44  1  0  0  0  0
 18 45  1  0  0  0  0
 19 46  1  0  0  0  0
 20 47  1  0  0  0  0
 21 48  1  0  0  0  0
 22 49  1  0  0  0  0
 23 50  1  0  0  0  0
 24 51  1  0  0  0  0
M  END
$$$$
