JY7_A_803
          06102512283D 1   1.00000     0.00000     0
            
 38 41  0  0  0  0            999 V2000
  -25.0657  -10.9043    4.8630 F   0  0  0  0  0  0  0  0  0  0  0  0
  -29.4369  -11.0769    6.7605 O   0  0  0  0  0  0  0  0  0  0  0  0
  -27.9277  -10.5015   10.4569 N   0  0  0  0  0  0  0  0  0  0  0  0
  -28.4243  -10.6365    9.2222 N   0  0  0  0  0  0  0  0  0  0  0  0
  -24.6636   -9.6755   11.5573 N   0  0  0  0  0  0  0  0  0  0  0  0
  -20.5511   -8.9561    8.7184 N   0  0  0  0  0  0  0  0  0  0  0  0
  -25.9725  -10.0049   11.7886 N   0  0  0  0  0  0  0  0  0  0  0  0
  -29.9886  -11.5240    5.5200 C   0  0  0  0  0  0  0  0  0  0  0  0
  -26.4450  -10.0790   13.1674 C   0  0  0  0  0  0  0  0  0  0  0  0
  -23.9387   -7.3338    8.4274 C   0  0  0  0  0  0  0  0  0  0  0  0
  -20.8127   -9.9786    9.5413 C   0  0  0  0  0  0  0  0  0  0  0  0
  -21.5709   -8.1567    8.4009 C   0  0  0  0  0  0  0  0  0  0  0  0
  -22.0621  -10.2433   10.0732 C   0  0  0  0  0  0  0  0  0  0  0  0
  -27.2461  -10.9266    5.7300 C   0  0  0  0  0  0  0  0  0  0  0  0
  -25.3480  -10.4415    7.1302 C   0  0  0  0  0  0  0  0  0  0  0  0
  -25.8985  -10.7337    5.9319 C   0  0  0  0  0  0  0  0  0  0  0  0
  -26.6289  -10.2348   10.6064 C   0  0  0  0  0  0  0  0  0  0  0  0
  -28.0885  -10.8597    6.8241 C   0  0  0  0  0  0  0  0  0  0  0  0
  -27.5789  -10.5795    8.1290 C   0  0  0  0  0  0  0  0  0  0  0  0
  -24.4828   -9.6919   10.2447 C   0  0  0  0  0  0  0  0  0  0  0  0
  -22.8744   -8.3088    8.8601 C   0  0  0  0  0  0  0  0  0  0  0  0
  -23.1131   -9.3943    9.7270 C   0  0  0  0  0  0  0  0  0  0  0  0
  -26.1849  -10.3479    8.2680 C   0  0  0  0  0  0  0  0  0  0  0  0
  -25.6865  -10.0619    9.5771 C   0  0  0  0  0  0  0  0  0  0  0  0
  -30.9770  -11.6407    5.6175 H   0  0  0  0  0  0  0  0  0  0  0  0
  -29.8016  -10.8466    4.8085 H   0  0  0  0  0  0  0  0  0  0  0  0
  -29.5734  -12.3975    5.2659 H   0  0  0  0  0  0  0  0  0  0  0  0
  -27.4134  -10.3283   13.1750 H   0  0  0  0  0  0  0  0  0  0  0  0
  -25.9190  -10.7699   13.6633 H   0  0  0  0  0  0  0  0  0  0  0  0
  -26.3263   -9.1894   13.6086 H   0  0  0  0  0  0  0  0  0  0  0  0
  -24.8115   -7.5859    8.8453 H   0  0  0  0  0  0  0  0  0  0  0  0
  -23.6840   -6.4115    8.7182 H   0  0  0  0  0  0  0  0  0  0  0  0
  -24.0269   -7.3569    7.4315 H   0  0  0  0  0  0  0  0  0  0  0  0
  -20.0591  -10.5885    9.7866 H   0  0  0  0  0  0  0  0  0  0  0  0
  -21.3836   -7.3904    7.7864 H   0  0  0  0  0  0  0  0  0  0  0  0
  -22.2071  -11.0194   10.6869 H   0  0  0  0  0  0  0  0  0  0  0  0
  -27.6066  -11.1103    4.8156 H   0  0  0  0  0  0  0  0  0  0  0  0
  -24.3625  -10.2931    7.2124 H   0  0  0  0  0  0  0  0  0  0  0  0
  1 16  1  0  0  0  0
  2  8  1  0  0  0  0
  2 18  1  0  0  0  0
  3  4  2  0  0  0  0
  3 17  1  0  0  0  0
  4 19  1  0  0  0  0
  5  7  1  0  0  0  0
  5 20  2  0  0  0  0
  6 11  2  0  0  0  0
  6 12  1  0  0  0  0
  7  9  1  0  0  0  0
  7 17  1  0  0  0  0
 10 21  1  0  0  0  0
 11 13  1  0  0  0  0
 12 21  2  0  0  0  0
 13 22  2  0  0  0  0
 14 16  2  0  0  0  0
 14 18  1  0  0  0  0
 15 16  1  0  0  0  0
 15 23  2  0  0  0  0
 17 24  2  0  0  0  0
 18 19  2  0  0  0  0
 19 23  1  0  0  0  0
 20 22  1  0  0  0  0
 20 24  1  0  0  0  0
 21 22  1  0  0  0  0
 23 24  1  0  0  0  0
  8 25  1  0  0  0  0
  8 26  1  0  0  0  0
  8 27  1  0  0  0  0
  9 28  1  0  0  0  0
  9 29  1  0  0  0  0
  9 30  1  0  0  0  0
 10 31  1  0  0  0  0
 10 32  1  0  0  0  0
 10 33  1  0  0  0  0
 11 34  1  0  0  0  0
 12 35  1  0  0  0  0
 13 36  1  0  0  0  0
 14 37  1  0  0  0  0
 15 38  1  0  0  0  0
M  END
$$$$
