5AXP_13_4LK_B_1003
          06092522083D 1   1.00000     0.00000     0
            
 51 55  0  0  0  0            999 V2000
  -39.6750  -35.5620  -10.5280 F   0  0  0  0  0  0  0  0  0  0  0  0
  -40.4990  -40.0590  -11.3580 O   0  0  0  0  0  0  0  0  0  0  0  0
  -37.7850  -31.2700   -6.6310 O   0  0  0  0  0  0  0  0  0  0  0  0
  -37.3500  -31.2850   -9.3670 O   0  0  0  0  0  0  0  0  0  0  0  0
  -39.3670  -42.0060  -11.0610 O   0  0  0  0  0  0  0  0  0  0  0  0
  -38.3750  -34.3220   -2.9090 N   0  0  0  0  0  0  0  0  0  0  0  0
  -38.1280  -34.7660   -7.0890 N   0  0  0  0  0  0  0  0  0  0  0  0
  -37.9210  -34.8300   -8.4280 N   0  0  0  0  0  0  0  0  0  0  0  0
  -38.0170  -34.5820   -4.1800 N   0  0  0  0  0  0  0  0  0  0  0  0
  -38.5070  -40.1720  -10.1200 N   0  0  0  0  0  0  0  0  0  0  0  0
  -37.4250  -31.5730  -10.7600 C   0  0  0  0  0  0  0  0  0  0  0  0
  -38.1660  -42.4190  -10.3760 C   0  0  0  0  0  0  0  0  0  0  0  0
  -38.9450  -33.1070   -2.9720 C   0  0  0  0  0  0  0  0  0  0  0  0
  -37.5730  -41.1910   -9.7330 C   0  0  0  0  0  0  0  0  0  0  0  0
  -37.6640  -33.7040   -9.1750 C   0  0  0  0  0  0  0  0  0  0  0  0
  -35.9720  -38.0630   -5.0830 C   0  0  0  0  0  0  0  0  0  0  0  0
  -35.3030  -36.8580   -5.0750 C   0  0  0  0  0  0  0  0  0  0  0  0
  -37.3190  -38.1060   -4.7870 C   0  0  0  0  0  0  0  0  0  0  0  0
  -38.9390  -32.6100   -4.3010 C   0  0  0  0  0  0  0  0  0  0  0  0
  -35.9810  -35.6890   -4.7680 C   0  0  0  0  0  0  0  0  0  0  0  0
  -38.0050  -36.9490   -4.4850 C   0  0  0  0  0  0  0  0  0  0  0  0
  -37.4690  -38.4810   -8.7200 C   0  0  0  0  0  0  0  0  0  0  0  0
  -37.3250  -37.1690   -8.3160 C   0  0  0  0  0  0  0  0  0  0  0  0
  -39.0810  -37.8110  -10.3280 C   0  0  0  0  0  0  0  0  0  0  0  0
  -39.5480  -40.6670  -10.8860 C   0  0  0  0  0  0  0  0  0  0  0  0
  -38.9330  -36.5020   -9.9190 C   0  0  0  0  0  0  0  0  0  0  0  0
  -37.8110  -32.3440   -7.2270 C   0  0  0  0  0  0  0  0  0  0  0  0
  -37.5950  -32.4600   -8.6810 C   0  0  0  0  0  0  0  0  0  0  0  0
  -38.0770  -33.6250   -6.4820 C   0  0  0  0  0  0  0  0  0  0  0  0
  -37.3260  -35.7520   -4.4830 C   0  0  0  0  0  0  0  0  0  0  0  0
  -38.3510  -38.8190   -9.7270 C   0  0  0  0  0  0  0  0  0  0  0  0
  -38.0510  -36.1540   -8.9100 C   0  0  0  0  0  0  0  0  0  0  0  0
  -38.3280  -33.5800   -5.0620 C   0  0  0  0  0  0  0  0  0  0  0  0
  -37.2513  -30.7384  -11.2828 H   0  0  0  0  0  0  0  0  0  0  0  0
  -36.7398  -32.2623  -10.9952 H   0  0  0  0  0  0  0  0  0  0  0  0
  -38.3365  -31.9205  -10.9799 H   0  0  0  0  0  0  0  0  0  0  0  0
  -37.5173  -42.8110  -11.0284 H   0  0  0  0  0  0  0  0  0  0  0  0
  -38.3873  -43.0987   -9.6767 H   0  0  0  0  0  0  0  0  0  0  0  0
  -39.3234  -32.6177   -2.1863 H   0  0  0  0  0  0  0  0  0  0  0  0
  -37.5303  -41.2861   -8.7385 H   0  0  0  0  0  0  0  0  0  0  0  0
  -36.6583  -40.9999  -10.0892 H   0  0  0  0  0  0  0  0  0  0  0  0
  -37.5182  -33.8220  -10.1572 H   0  0  0  0  0  0  0  0  0  0  0  0
  -35.4812  -38.9060   -5.3033 H   0  0  0  0  0  0  0  0  0  0  0  0
  -34.3271  -36.8272   -5.2910 H   0  0  0  0  0  0  0  0  0  0  0  0
  -37.8008  -38.9823   -4.7916 H   0  0  0  0  0  0  0  0  0  0  0  0
  -39.3037  -31.7349   -4.6191 H   0  0  0  0  0  0  0  0  0  0  0  0
  -35.5000  -34.8124   -4.7538 H   0  0  0  0  0  0  0  0  0  0  0  0
  -38.9813  -36.9791   -4.2706 H   0  0  0  0  0  0  0  0  0  0  0  0
  -36.9275  -39.1959   -8.2776 H   0  0  0  0  0  0  0  0  0  0  0  0
  -36.6841  -36.9490   -7.5806 H   0  0  0  0  0  0  0  0  0  0  0  0
  -39.7207  -38.0321  -11.0642 H   0  0  0  0  0  0  0  0  0  0  0  0
  1 26  1  0  0  0  0
  2 25  2  0  0  0  0
  3 27  2  0  0  0  0
  4 11  1  0  0  0  0
  4 28  1  0  0  0  0
  5 12  1  0  0  0  0
  5 25  1  0  0  0  0
  6  9  1  0  0  0  0
  6 13  2  0  0  0  0
  7  8  1  0  0  0  0
  7 29  2  0  0  0  0
  8 15  1  0  0  0  0
  8 32  1  0  0  0  0
  9 30  1  0  0  0  0
  9 33  1  0  0  0  0
 10 14  1  0  0  0  0
 10 25  1  0  0  0  0
 10 31  1  0  0  0  0
 12 14  1  0  0  0  0
 13 19  1  0  0  0  0
 15 28  2  0  0  0  0
 16 17  2  0  0  0  0
 16 18  1  0  0  0  0
 17 20  1  0  0  0  0
 18 21  2  0  0  0  0
 19 33  2  0  0  0  0
 20 30  2  0  0  0  0
 21 30  1  0  0  0  0
 22 23  1  0  0  0  0
 22 31  2  0  0  0  0
 23 32  2  0  0  0  0
 24 26  2  0  0  0  0
 24 31  1  0  0  0  0
 26 32  1  0  0  0  0
 27 28  1  0  0  0  0
 27 29  1  0  0  0  0
 29 33  1  0  0  0  0
 11 34  1  0  0  0  0
 11 35  1  0  0  0  0
 11 36  1  0  0  0  0
 12 37  1  0  0  0  0
 12 38  1  0  0  0  0
 13 39  1  0  0  0  0
 14 40  1  0  0  0  0
 14 41  1  0  0  0  0
 15 42  1  0  0  0  0
 16 43  1  0  0  0  0
 17 44  1  0  0  0  0
 18 45  1  0  0  0  0
 19 46  1  0  0  0  0
 20 47  1  0  0  0  0
 21 48  1  0  0  0  0
 22 49  1  0  0  0  0
 23 50  1  0  0  0  0
 24 51  1  0  0  0  0
M  END
$$$$
5AXP_13_4LK_B_1003
          06092522443D 1   1.00000     0.00000     0
            
 51 55  0  0  0  0            999 V2000
  -39.6750  -35.5620  -10.5280 F   0  0  0  0  0  0  0  0  0  0  0  0
  -40.4990  -40.0590  -11.3580 O   0  0  0  0  0  0  0  0  0  0  0  0
  -37.7850  -31.2700   -6.6310 O   0  0  0  0  0  0  0  0  0  0  0  0
  -37.3500  -31.2850   -9.3670 O   0  0  0  0  0  0  0  0  0  0  0  0
  -39.3670  -42.0060  -11.0610 O   0  0  0  0  0  0  0  0  0  0  0  0
  -38.3750  -34.3220   -2.9090 N   0  0  0  0  0  0  0  0  0  0  0  0
  -38.1280  -34.7660   -7.0890 N   0  0  0  0  0  0  0  0  0  0  0  0
  -37.9210  -34.8300   -8.4280 N   0  0  0  0  0  0  0  0  0  0  0  0
  -38.0170  -34.5820   -4.1800 N   0  0  0  0  0  0  0  0  0  0  0  0
  -38.5070  -40.1720  -10.1200 N   0  0  0  0  0  0  0  0  0  0  0  0
  -37.4250  -31.5730  -10.7600 C   0  0  0  0  0  0  0  0  0  0  0  0
  -38.1660  -42.4190  -10.3760 C   0  0  0  0  0  0  0  0  0  0  0  0
  -38.9450  -33.1070   -2.9720 C   0  0  0  0  0  0  0  0  0  0  0  0
  -37.5730  -41.1910   -9.7330 C   0  0  0  0  0  0  0  0  0  0  0  0
  -37.6640  -33.7040   -9.1750 C   0  0  0  0  0  0  0  0  0  0  0  0
  -35.9720  -38.0630   -5.0830 C   0  0  0  0  0  0  0  0  0  0  0  0
  -35.3030  -36.8580   -5.0750 C   0  0  0  0  0  0  0  0  0  0  0  0
  -37.3190  -38.1060   -4.7870 C   0  0  0  0  0  0  0  0  0  0  0  0
  -38.9390  -32.6100   -4.3010 C   0  0  0  0  0  0  0  0  0  0  0  0
  -35.9810  -35.6890   -4.7680 C   0  0  0  0  0  0  0  0  0  0  0  0
  -38.0050  -36.9490   -4.4850 C   0  0  0  0  0  0  0  0  0  0  0  0
  -37.4690  -38.4810   -8.7200 C   0  0  0  0  0  0  0  0  0  0  0  0
  -37.3250  -37.1690   -8.3160 C   0  0  0  0  0  0  0  0  0  0  0  0
  -39.0810  -37.8110  -10.3280 C   0  0  0  0  0  0  0  0  0  0  0  0
  -39.5480  -40.6670  -10.8860 C   0  0  0  0  0  0  0  0  0  0  0  0
  -38.9330  -36.5020   -9.9190 C   0  0  0  0  0  0  0  0  0  0  0  0
  -37.8110  -32.3440   -7.2270 C   0  0  0  0  0  0  0  0  0  0  0  0
  -37.5950  -32.4600   -8.6810 C   0  0  0  0  0  0  0  0  0  0  0  0
  -38.0770  -33.6250   -6.4820 C   0  0  0  0  0  0  0  0  0  0  0  0
  -37.3260  -35.7520   -4.4830 C   0  0  0  0  0  0  0  0  0  0  0  0
  -38.3510  -38.8190   -9.7270 C   0  0  0  0  0  0  0  0  0  0  0  0
  -38.0510  -36.1540   -8.9100 C   0  0  0  0  0  0  0  0  0  0  0  0
  -38.3280  -33.5800   -5.0620 C   0  0  0  0  0  0  0  0  0  0  0  0
  -37.2513  -30.7384  -11.2828 H   0  0  0  0  0  0  0  0  0  0  0  0
  -36.7398  -32.2623  -10.9952 H   0  0  0  0  0  0  0  0  0  0  0  0
  -38.3365  -31.9205  -10.9799 H   0  0  0  0  0  0  0  0  0  0  0  0
  -37.5173  -42.8110  -11.0284 H   0  0  0  0  0  0  0  0  0  0  0  0
  -38.3873  -43.0987   -9.6767 H   0  0  0  0  0  0  0  0  0  0  0  0
  -39.3234  -32.6177   -2.1863 H   0  0  0  0  0  0  0  0  0  0  0  0
  -37.5303  -41.2861   -8.7385 H   0  0  0  0  0  0  0  0  0  0  0  0
  -36.6583  -40.9999  -10.0892 H   0  0  0  0  0  0  0  0  0  0  0  0
  -37.5182  -33.8220  -10.1572 H   0  0  0  0  0  0  0  0  0  0  0  0
  -35.4812  -38.9060   -5.3033 H   0  0  0  0  0  0  0  0  0  0  0  0
  -34.3271  -36.8272   -5.2910 H   0  0  0  0  0  0  0  0  0  0  0  0
  -37.8008  -38.9823   -4.7916 H   0  0  0  0  0  0  0  0  0  0  0  0
  -39.3037  -31.7349   -4.6191 H   0  0  0  0  0  0  0  0  0  0  0  0
  -35.5000  -34.8124   -4.7538 H   0  0  0  0  0  0  0  0  0  0  0  0
  -38.9813  -36.9791   -4.2706 H   0  0  0  0  0  0  0  0  0  0  0  0
  -36.9275  -39.1959   -8.2776 H   0  0  0  0  0  0  0  0  0  0  0  0
  -36.6841  -36.9490   -7.5806 H   0  0  0  0  0  0  0  0  0  0  0  0
  -39.7207  -38.0321  -11.0642 H   0  0  0  0  0  0  0  0  0  0  0  0
  1 26  1  0  0  0  0
  2 25  2  0  0  0  0
  3 27  2  0  0  0  0
  4 11  1  0  0  0  0
  4 28  1  0  0  0  0
  5 12  1  0  0  0  0
  5 25  1  0  0  0  0
  6  9  1  0  0  0  0
  6 13  2  0  0  0  0
  7  8  1  0  0  0  0
  7 29  2  0  0  0  0
  8 15  1  0  0  0  0
  8 32  1  0  0  0  0
  9 30  1  0  0  0  0
  9 33  1  0  0  0  0
 10 14  1  0  0  0  0
 10 25  1  0  0  0  0
 10 31  1  0  0  0  0
 12 14  1  0  0  0  0
 13 19  1  0  0  0  0
 15 28  2  0  0  0  0
 16 17  2  0  0  0  0
 16 18  1  0  0  0  0
 17 20  1  0  0  0  0
 18 21  2  0  0  0  0
 19 33  2  0  0  0  0
 20 30  2  0  0  0  0
 21 30  1  0  0  0  0
 22 23  1  0  0  0  0
 22 31  2  0  0  0  0
 23 32  2  0  0  0  0
 24 26  2  0  0  0  0
 24 31  1  0  0  0  0
 26 32  1  0  0  0  0
 27 28  1  0  0  0  0
 27 29  1  0  0  0  0
 29 33  1  0  0  0  0
 11 34  1  0  0  0  0
 11 35  1  0  0  0  0
 11 36  1  0  0  0  0
 12 37  1  0  0  0  0
 12 38  1  0  0  0  0
 13 39  1  0  0  0  0
 14 40  1  0  0  0  0
 14 41  1  0  0  0  0
 15 42  1  0  0  0  0
 16 43  1  0  0  0  0
 17 44  1  0  0  0  0
 18 45  1  0  0  0  0
 19 46  1  0  0  0  0
 20 47  1  0  0  0  0
 21 48  1  0  0  0  0
 22 49  1  0  0  0  0
 23 50  1  0  0  0  0
 24 51  1  0  0  0  0
M  END
$$$$
5AXP_13_4LK_B_1003
          06102512283D 1   1.00000     0.00000     0
            
 51 55  0  0  0  0            999 V2000
  -39.6750  -35.5620  -10.5280 F   0  0  0  0  0  0  0  0  0  0  0  0
  -40.4990  -40.0590  -11.3580 O   0  0  0  0  0  0  0  0  0  0  0  0
  -37.7850  -31.2700   -6.6310 O   0  0  0  0  0  0  0  0  0  0  0  0
  -37.3500  -31.2850   -9.3670 O   0  0  0  0  0  0  0  0  0  0  0  0
  -39.3670  -42.0060  -11.0610 O   0  0  0  0  0  0  0  0  0  0  0  0
  -38.3750  -34.3220   -2.9090 N   0  0  0  0  0  0  0  0  0  0  0  0
  -38.1280  -34.7660   -7.0890 N   0  0  0  0  0  0  0  0  0  0  0  0
  -37.9210  -34.8300   -8.4280 N   0  0  0  0  0  0  0  0  0  0  0  0
  -38.0170  -34.5820   -4.1800 N   0  0  0  0  0  0  0  0  0  0  0  0
  -38.5070  -40.1720  -10.1200 N   0  0  0  0  0  0  0  0  0  0  0  0
  -37.4250  -31.5730  -10.7600 C   0  0  0  0  0  0  0  0  0  0  0  0
  -38.1660  -42.4190  -10.3760 C   0  0  0  0  0  0  0  0  0  0  0  0
  -38.9450  -33.1070   -2.9720 C   0  0  0  0  0  0  0  0  0  0  0  0
  -37.5730  -41.1910   -9.7330 C   0  0  0  0  0  0  0  0  0  0  0  0
  -37.6640  -33.7040   -9.1750 C   0  0  0  0  0  0  0  0  0  0  0  0
  -35.9720  -38.0630   -5.0830 C   0  0  0  0  0  0  0  0  0  0  0  0
  -35.3030  -36.8580   -5.0750 C   0  0  0  0  0  0  0  0  0  0  0  0
  -37.3190  -38.1060   -4.7870 C   0  0  0  0  0  0  0  0  0  0  0  0
  -38.9390  -32.6100   -4.3010 C   0  0  0  0  0  0  0  0  0  0  0  0
  -35.9810  -35.6890   -4.7680 C   0  0  0  0  0  0  0  0  0  0  0  0
  -38.0050  -36.9490   -4.4850 C   0  0  0  0  0  0  0  0  0  0  0  0
  -37.4690  -38.4810   -8.7200 C   0  0  0  0  0  0  0  0  0  0  0  0
  -37.3250  -37.1690   -8.3160 C   0  0  0  0  0  0  0  0  0  0  0  0
  -39.0810  -37.8110  -10.3280 C   0  0  0  0  0  0  0  0  0  0  0  0
  -39.5480  -40.6670  -10.8860 C   0  0  0  0  0  0  0  0  0  0  0  0
  -38.9330  -36.5020   -9.9190 C   0  0  0  0  0  0  0  0  0  0  0  0
  -37.8110  -32.3440   -7.2270 C   0  0  0  0  0  0  0  0  0  0  0  0
  -37.5950  -32.4600   -8.6810 C   0  0  0  0  0  0  0  0  0  0  0  0
  -38.0770  -33.6250   -6.4820 C   0  0  0  0  0  0  0  0  0  0  0  0
  -37.3260  -35.7520   -4.4830 C   0  0  0  0  0  0  0  0  0  0  0  0
  -38.3510  -38.8190   -9.7270 C   0  0  0  0  0  0  0  0  0  0  0  0
  -38.0510  -36.1540   -8.9100 C   0  0  0  0  0  0  0  0  0  0  0  0
  -38.3280  -33.5800   -5.0620 C   0  0  0  0  0  0  0  0  0  0  0  0
  -37.2513  -30.7384  -11.2828 H   0  0  0  0  0  0  0  0  0  0  0  0
  -36.7398  -32.2623  -10.9952 H   0  0  0  0  0  0  0  0  0  0  0  0
  -38.3365  -31.9205  -10.9799 H   0  0  0  0  0  0  0  0  0  0  0  0
  -37.5173  -42.8110  -11.0284 H   0  0  0  0  0  0  0  0  0  0  0  0
  -38.3873  -43.0987   -9.6767 H   0  0  0  0  0  0  0  0  0  0  0  0
  -39.3234  -32.6177   -2.1863 H   0  0  0  0  0  0  0  0  0  0  0  0
  -37.5303  -41.2861   -8.7385 H   0  0  0  0  0  0  0  0  0  0  0  0
  -36.6583  -40.9999  -10.0892 H   0  0  0  0  0  0  0  0  0  0  0  0
  -37.5182  -33.8220  -10.1572 H   0  0  0  0  0  0  0  0  0  0  0  0
  -35.4812  -38.9060   -5.3033 H   0  0  0  0  0  0  0  0  0  0  0  0
  -34.3271  -36.8272   -5.2910 H   0  0  0  0  0  0  0  0  0  0  0  0
  -37.8008  -38.9823   -4.7916 H   0  0  0  0  0  0  0  0  0  0  0  0
  -39.3037  -31.7349   -4.6191 H   0  0  0  0  0  0  0  0  0  0  0  0
  -35.5000  -34.8124   -4.7538 H   0  0  0  0  0  0  0  0  0  0  0  0
  -38.9813  -36.9791   -4.2706 H   0  0  0  0  0  0  0  0  0  0  0  0
  -36.9275  -39.1959   -8.2776 H   0  0  0  0  0  0  0  0  0  0  0  0
  -36.6841  -36.9490   -7.5806 H   0  0  0  0  0  0  0  0  0  0  0  0
  -39.7207  -38.0321  -11.0642 H   0  0  0  0  0  0  0  0  0  0  0  0
  1 26  1  0  0  0  0
  2 25  2  0  0  0  0
  3 27  2  0  0  0  0
  4 11  1  0  0  0  0
  4 28  1  0  0  0  0
  5 12  1  0  0  0  0
  5 25  1  0  0  0  0
  6  9  1  0  0  0  0
  6 13  2  0  0  0  0
  7  8  1  0  0  0  0
  7 29  2  0  0  0  0
  8 15  1  0  0  0  0
  8 32  1  0  0  0  0
  9 30  1  0  0  0  0
  9 33  1  0  0  0  0
 10 14  1  0  0  0  0
 10 25  1  0  0  0  0
 10 31  1  0  0  0  0
 12 14  1  0  0  0  0
 13 19  1  0  0  0  0
 15 28  2  0  0  0  0
 16 17  2  0  0  0  0
 16 18  1  0  0  0  0
 17 20  1  0  0  0  0
 18 21  2  0  0  0  0
 19 33  2  0  0  0  0
 20 30  2  0  0  0  0
 21 30  1  0  0  0  0
 22 23  1  0  0  0  0
 22 31  2  0  0  0  0
 23 32  2  0  0  0  0
 24 26  2  0  0  0  0
 24 31  1  0  0  0  0
 26 32  1  0  0  0  0
 27 28  1  0  0  0  0
 27 29  1  0  0  0  0
 29 33  1  0  0  0  0
 11 34  1  0  0  0  0
 11 35  1  0  0  0  0
 11 36  1  0  0  0  0
 12 37  1  0  0  0  0
 12 38  1  0  0  0  0
 13 39  1  0  0  0  0
 14 40  1  0  0  0  0
 14 41  1  0  0  0  0
 15 42  1  0  0  0  0
 16 43  1  0  0  0  0
 17 44  1  0  0  0  0
 18 45  1  0  0  0  0
 19 46  1  0  0  0  0
 20 47  1  0  0  0  0
 21 48  1  0  0  0  0
 22 49  1  0  0  0  0
 23 50  1  0  0  0  0
 24 51  1  0  0  0  0
M  END
$$$$
