5AXP_13_MG_A_1001
          06092522083D 1   1.00000     0.00000     0
            
  1  0  0  0  0  0            999 V2000
  -16.8360   -6.7560   10.0190 Mg  0  2  0  0  0  0  0  0  0  0  0  0
M  CHG  1   1   2
M  END
$$$$
5AXP_13_MG_A_1001
          06092522443D 1   1.00000     0.00000     0
            
  1  0  0  0  0  0            999 V2000
  -16.8360   -6.7560   10.0190 Mg  0  2  0  0  0  0  0  0  0  0  0  0
M  CHG  1   1   2
M  END
$$$$
5AXP_13_MG_A_1001
          06102512283D 1   1.00000     0.00000     0
            
  1  0  0  0  0  0            999 V2000
  -16.8360   -6.7560   10.0190 Mg  0  2  0  0  0  0  0  0  0  0  0  0
M  CHG  1   1   2
M  END
$$$$
